/*--------------------------------*- C++ -*----------------------------------*\
| =========                 |                                                 |
| \\      /  F ield         | OpenFOAM: The Open Source CFD Toolbox           |
|  \\    /   O peration     | Version:  v2006                                 |
|   \\  /    A nd           | Website:  www.openfoam.com                      |
|    \\/     M anipulation  |                                                 |
\*---------------------------------------------------------------------------*/
FoamFile
{
    version     2.0;
    format      binary;
    class       polyBoundaryMesh;
    arch        "LSB;label=32;scalar=64";
    location    "constant/polyMesh";
    object      boundary;
}
// * * * * * * * * * * * * * * * * * * * * * * * * * * * * * * * * * * * * * //

6
(
    my-velocity-inlet
    {
        type            patch;
        nFaces          256;
        startFace       1904752;
    }
    my-pressure-outlet
    {
        type            patch;
        nFaces          256;
        startFace       1905008;
    }
    my-wall
    {
        type            wall;
        inGroups        1(wall);
        nFaces          3728;
        startFace       1905264;
    }
    wedgeplanesBack
    {
        type            wedge;
        inGroups        1(wedge);
        nFaces          954368;
        startFace       1908992;
    }
    wedgeplanesFront
    {
        type            wedge;
        inGroups        1(wedge);
        nFaces          954368;
        startFace       2863360;
    }
    freeSurf
    {
        type            symmetryPlane;
        inGroups        1(symmetryPlane);
        nFaces          3728;
        startFace       3817728;
    }
)

// ************************************************************************* //
